***VI characteristics***

vg 1 0 dc -2.5v
vd 3 0 dc -2.5v
vs 3 2 dc 0v

.model pmod pmos level = 54 version = 4.7
m1 2 1 0 0 pmod w = 100u l = 10u
 
.dc vg 0 -2.5 -0.1  vd 0 -2.5 -0.1
.control
run
plot i(vs)
.endc
.end