***CMOS INVERTER***

Vdd 2 0 dc 3v
.model nmod nmos level = 54 version = 4.7
m1 3 1 0 0 nmod w = 100u l = 10u
.model pmod pmos level = 54 version = 4.7
m2 3 1 2 2 pmod w = 10000u l = 10u

v1 1 0 dc 5v   
.dc V1 0 5 0.1
.control 
run
plot v(1) v(3)
.endc
.end